Version 4.1
SHEET 1 1000 680
WIRE 320 -64 208 -64
WIRE 208 -32 208 -64
WIRE 320 -32 320 -64
WIRE 320 -32 288 -32
WIRE 320 -16 256 -16
WIRE 288 0 288 -32
WIRE 320 0 288 0
WIRE -144 32 -176 32
WIRE 0 32 0 -32
WIRE 0 32 -64 32
WIRE 16 32 0 32
WIRE 160 32 96 32
WIRE -176 64 -176 32
WIRE 208 64 208 48
WIRE 320 112 320 0
WIRE -16 128 -96 128
WIRE 16 128 -16 128
WIRE 160 128 160 32
WIRE 160 128 96 128
WIRE 256 128 256 -16
WIRE 256 128 160 128
WIRE 288 128 256 128
WIRE 400 144 400 -16
WIRE 400 144 352 144
WIRE 432 144 400 144
WIRE 288 160 208 160
WIRE -96 176 -96 128
WIRE -16 176 -16 128
WIRE 208 208 208 160
WIRE 320 208 320 176
WIRE 320 304 320 288
FLAG 208 64 0
FLAG 432 144 Uout
IOPIN 432 144 Out
FLAG 0 -32 U1
IOPIN 0 -32 In
FLAG -16 176 U2
IOPIN -16 176 In
FLAG -176 64 0
FLAG 208 208 0
FLAG -96 176 0
FLAG 320 304 0
SYMBOL LM324 320 144 R0
SYMATTR InstName A1
SYMBOL res 112 16 R90
WINDOW 0 0 56 VBottom 2
WINDOW 3 32 56 VTop 2
SYMATTR InstName R1
SYMATTR Value 1K
SYMATTR SpiceLine tol=1 pwr=0.1
SYMBOL res 416 -32 R90
WINDOW 0 0 56 VBottom 2
WINDOW 3 32 56 VTop 2
SYMATTR InstName R2
SYMATTR Value 10K
SYMATTR SpiceLine tol=1 pwr=0.1
SYMBOL voltage 208 -48 R0
WINDOW 123 0 0 Left 0
WINDOW 39 0 0 Left 0
SYMATTR InstName Vs
SYMATTR Value +5
SYMBOL res 112 112 R90
WINDOW 0 0 56 VBottom 2
WINDOW 3 32 56 VTop 2
SYMATTR InstName R3
SYMATTR Value 1K
SYMATTR SpiceLine tol=1 pwr=0.1
SYMBOL voltage -48 32 R90
WINDOW 0 -32 56 VBottom 2
WINDOW 3 32 56 VTop 2
WINDOW 123 60 56 VTop 2
WINDOW 39 0 0 Left 0
SYMATTR InstName V1
SYMATTR Value SINE(0 0.5 100)
SYMATTR Value2 AC 0.5
SYMBOL voltage 320 192 R0
WINDOW 123 0 0 Left 0
WINDOW 39 0 0 Left 0
SYMATTR InstName V2
SYMATTR Value -5
TEXT -240 -96 Left 2 !.include LM324.lib
TEXT -240 -56 Left 2 !.tran 100m
