Version 4.1
SHEET 1 880 680
WIRE 96 144 32 144
WIRE 272 144 224 144
WIRE 32 176 32 144
WIRE 32 288 32 256
FLAG 32 288 0
FLAG 32 144 in
IOPIN 32 144 In
FLAG 272 144 out
IOPIN 272 144 Out
SYMBOL 74hct\\74hct14 144 80 R0
SYMATTR InstName U1
SYMBOL voltage 32 160 R0
WINDOW 123 24 124 Left 2
WINDOW 39 0 0 Left 0
SYMATTR Value2 AC 0.5
SYMATTR InstName V1
SYMATTR Value PWL(0m 0 0.1s 2.5 0.2s 0 0.3s -2.5 0.4s 0)
TEXT 48 344 Left 2 !.include 74hct.lib
TEXT 48 320 Left 2 !.tran 1s
