Version 4.1
SHEET 1 880 680
WIRE 48 0 -16 0
WIRE 176 0 128 0
WIRE 112 48 64 48
WIRE 64 64 64 48
WIRE 112 112 112 48
WIRE -128 128 -272 128
WIRE -16 128 -16 0
WIRE -16 128 -48 128
WIRE 80 128 -16 128
WIRE 176 144 176 0
WIRE 176 144 144 144
WIRE 256 144 176 144
WIRE 80 160 16 160
WIRE -128 224 -208 224
WIRE 16 224 16 160
WIRE 16 224 -48 224
WIRE -272 240 -272 208
WIRE -208 240 -208 224
WIRE 16 240 16 224
WIRE 112 240 112 176
WIRE -208 352 -208 320
WIRE 16 352 16 320
WIRE 112 352 112 320
FLAG 64 64 0
FLAG -208 352 0
FLAG 256 144 Uout
IOPIN 256 144 Out
FLAG 16 352 0
FLAG 112 352 0
FLAG -272 240 0
FLAG -272 128 Uin
IOPIN -272 128 In
SYMBOL LM324 112 144 M180
WINDOW 3 16 32 Left 1
SYMATTR InstName A1
SYMBOL voltage 112 224 R0
WINDOW 0 44 82 Top 1
WINDOW 3 44 54 Top 1
WINDOW 123 0 0 Left 0
WINDOW 39 0 0 Left 0
SYMATTR InstName V2
SYMATTR Value 5
SYMBOL res 144 -16 R90
WINDOW 0 0 56 VBottom 1
WINDOW 3 32 56 VTop 1
SYMATTR InstName R5
SYMATTR Value 100K
SYMATTR SpiceLine tol=1 pwr=0.1
SYMBOL res -32 112 R90
WINDOW 0 0 56 VBottom 1
WINDOW 3 32 56 VTop 1
SYMATTR InstName R4
SYMATTR Value 100K
SYMATTR SpiceLine tol=1 pwr=0.1
SYMBOL res -32 208 R90
WINDOW 0 0 56 VBottom 1
WINDOW 3 32 56 VTop 1
SYMATTR InstName R6
SYMATTR Value 100K
SYMATTR SpiceLine tol=1 pwr=0.1
SYMBOL voltage -208 224 R0
WINDOW 0 24 16 Left 1
WINDOW 3 24 44 Left 1
WINDOW 123 0 0 Left 0
WINDOW 39 0 0 Left 0
SYMATTR InstName V1
SYMATTR Value 5
SYMBOL res 0 224 R0
WINDOW 0 36 40 Left 1
WINDOW 3 36 76 Left 1
SYMATTR InstName R7
SYMATTR Value 100K
SYMATTR SpiceLine tol=1 pwr=0.1
SYMBOL voltage -272 112 R0
WINDOW 123 0 0 Left 0
WINDOW 39 0 0 Left 0
SYMATTR InstName V3
SYMATTR Value PWL(0m 0 0.25m 10 0.5m 0 0.75m -10 1m 0)
TEXT -280 400 Left 2 !.tran 2m
TEXT -264 0 Left 2 !.include LM324.lib
